<?xml version="1.0" encoding="UTF-8"?>

<!-- generated on 02/28/20 22:53:45 by Eclipse SUMO duarouter Version 1.4.0
<configuration xmlns:xsi="http://www.w3.org/2001/XMLSchema-instance" xsi:noNamespaceSchemaLocation="http://sumo.dlr.de/xsd/duarouterConfiguration.xsd">

    <input>
        <net-file value="C:\Users\morri\Sumo\2020-02-28-22-53-24\osm.net.xml"/>
        <route-files value="C:\Users\morri\Sumo\2020-02-28-22-53-24\osm.passenger.trips.xml"/>
    </input>

    <output>
        <output-file value="C:\Users\morri\Sumo\2020-02-28-22-53-24\osm.passenger.trips.xml.tmp"/>
        <write-trips value="true"/>
    </output>

    <time>
        <begin value="0"/>
        <end value="3600.0"/>
    </time>

    <report>
        <no-warnings value="true"/>
        <ignore-errors value="true"/>
        <no-step-log value="true"/>
    </report>

</configuration>
-->

<routes xmlns:xsi="http://www.w3.org/2001/XMLSchema-instance" xsi:noNamespaceSchemaLocation="http://sumo.dlr.de/xsd/routes_file.xsd">
    <vType id="veh_passenger" vClass="passenger"/>
    <trip id="veh0" type="veh_passenger" depart="0.00" departLane="best" from="36737775#0" to="-23799724#1"/>
    <trip id="veh1" type="veh_passenger" depart="1.09" departLane="best" from="-36858421#2" to="-36854660"/>
    <trip id="veh2" type="veh_passenger" depart="2.18" departLane="best" from="36854664#1" to="36738004#1"/>
    <trip id="veh3" type="veh_passenger" depart="3.27" departLane="best" departSpeed="max" from="436489967#0" to="-36736748"/>
    <trip id="veh4" type="veh_passenger" depart="4.36" departLane="best" from="232908131#0" to="-27372016#1"/>
    <trip id="veh5" type="veh_passenger" depart="5.45" departLane="best" from="-36854613#0" to="283007265#11"/>
    <trip id="veh6" type="veh_passenger" depart="6.55" departLane="best" from="-23799682#1" to="-36739316#0"/>
    <trip id="veh7" type="veh_passenger" depart="7.64" departLane="best" from="36738005#0" to="299887785"/>
    <trip id="veh8" type="veh_passenger" depart="8.73" departLane="best" from="-36854617" to="36736778"/>
    <trip id="veh9" type="veh_passenger" depart="9.82" departLane="best" from="36858437" to="-14254018#0"/>
    <trip id="veh10" type="veh_passenger" depart="10.91" departLane="best" from="36858429" to="36738934#1"/>
    <trip id="veh11" type="veh_passenger" depart="12.00" departLane="best" from="-433222782#6" to="-36737595#1"/>
    <trip id="veh12" type="veh_passenger" depart="13.09" departLane="best" departSpeed="max" from="86807697#0" to="-433222782#1"/>
    <trip id="veh13" type="veh_passenger" depart="14.18" departLane="best" from="-36736752" to="-36736983"/>
    <trip id="veh14" type="veh_passenger" depart="15.27" departLane="best" from="37356519" to="36737166#2"/>
    <trip id="veh15" type="veh_passenger" depart="16.36" departLane="best" from="36858432" to="36740366#0"/>
    <trip id="veh17" type="veh_passenger" depart="18.55" departLane="best" from="123519887" to="31560507#0"/>
    <trip id="veh18" type="veh_passenger" depart="19.64" departLane="best" from="37317869" to="36737208"/>
    <trip id="veh19" type="veh_passenger" depart="20.73" departLane="best" from="4071685#2-AddedOnRampEdge" to="36736740"/>
    <trip id="veh20" type="veh_passenger" depart="21.82" departLane="best" from="36740366#1" to="-282953342#2"/>
    <trip id="veh21" type="veh_passenger" depart="22.91" departLane="best" from="-36854644" to="-36858425#1"/>
    <trip id="veh22" type="veh_passenger" depart="24.00" departLane="best" departSpeed="max" from="-35346616" to="-36854779#2"/>
    <trip id="veh23" type="veh_passenger" depart="25.09" departLane="best" from="-36736793#1" to="-36858405#0"/>
    <trip id="veh24" type="veh_passenger" depart="26.18" departLane="best" from="36737757" to="-548116721"/>
    <trip id="veh25" type="veh_passenger" depart="27.27" departLane="best" departSpeed="max" from="-70515144" to="-36854611#3"/>
    <trip id="veh26" type="veh_passenger" depart="28.36" departLane="best" from="-36858402#2" to="70513240#1"/>
    <trip id="veh27" type="veh_passenger" depart="29.46" departLane="best" from="36738003#1" to="36737178"/>
    <trip id="veh30" type="veh_passenger" depart="32.73" departLane="best" from="36736761" to="36738441#1"/>
    <trip id="veh31" type="veh_passenger" depart="33.82" departLane="best" from="37319015#0" to="36856026"/>
    <trip id="veh32" type="veh_passenger" depart="34.91" departLane="best" departSpeed="max" from="-36854663" to="-282947946#10"/>
    <trip id="veh33" type="veh_passenger" depart="36.00" departLane="best" from="-37318346#0" to="-36858386#0"/>
    <trip id="veh34" type="veh_passenger" depart="37.09" departLane="best" from="-36745503#0" to="70515142"/>
    <trip id="veh35" type="veh_passenger" depart="38.18" departLane="best" from="433222782#3" to="-37317869"/>
    <trip id="veh36" type="veh_passenger" depart="39.27" departLane="best" from="36738439#1" to="123519889"/>
    <trip id="veh37" type="veh_passenger" depart="40.37" departLane="best" from="4928592" to="23799676#2"/>
    <trip id="veh38" type="veh_passenger" depart="41.46" departLane="best" from="-36858398#0" to="-36855111#0"/>
    <trip id="veh39" type="veh_passenger" depart="42.55" departLane="best" from="36736779" to="-36858379"/>
    <trip id="veh40" type="veh_passenger" depart="43.64" departLane="best" from="36737188" to="436489968#0"/>
    <trip id="veh41" type="veh_passenger" depart="44.73" departLane="best" from="204866238#1" to="-36854641#1"/>
    <trip id="veh42" type="veh_passenger" depart="45.82" departLane="best" from="86811654#2" to="283007265#4"/>
    <trip id="veh43" type="veh_passenger" depart="46.91" departLane="best" from="-36736747" to="-282953342#3"/>
    <trip id="veh44" type="veh_passenger" depart="48.00" departLane="best" from="-36737172#1" to="36737260#0"/>
    <trip id="veh45" type="veh_passenger" depart="49.09" departLane="best" from="36858405#1" to="228313943-AddedOffRampEdge"/>
    <trip id="veh46" type="veh_passenger" depart="50.18" departLane="best" from="-283007265#10" to="-86811410#0"/>
    <trip id="veh47" type="veh_passenger" depart="51.27" departLane="best" from="86811654#0" to="283129766"/>
    <trip id="veh49" type="veh_passenger" depart="53.46" departLane="best" from="-204866238#1" to="36739312#1"/>
    <trip id="veh50" type="veh_passenger" depart="54.55" departLane="best" departSpeed="max" from="36738957" to="299319603#0"/>
    <trip id="veh51" type="veh_passenger" depart="55.64" departLane="best" from="-36858402#2" to="36737475#2"/>
    <trip id="veh52" type="veh_passenger" depart="56.73" departLane="best" from="-36737175#1" to="23128881-AddedOffRampEdge"/>
    <trip id="veh53" type="veh_passenger" depart="57.82" departLane="best" departSpeed="max" from="282947946#0" to="86807695-AddedOffRampEdge"/>
    <trip id="veh54" type="veh_passenger" depart="58.91" departLane="best" from="433222782#3" to="-36858380#1"/>
    <trip id="veh56" type="veh_passenger" depart="61.09" departLane="best" from="4928579" to="42140293#3"/>
    <trip id="veh57" type="veh_passenger" depart="62.18" departLane="best" from="-37317862#2" to="36737473#2"/>
    <trip id="veh58" type="veh_passenger" depart="63.28" departLane="best" from="36737469#0" to="-36737504#1"/>
    <trip id="veh59" type="veh_passenger" depart="64.37" departLane="best" from="36855112#0" to="299887484#2"/>
    <trip id="veh60" type="veh_passenger" depart="65.46" departLane="best" departSpeed="max" from="36858382" to="283129766"/>
    <trip id="veh61" type="veh_passenger" depart="66.55" departLane="best" departSpeed="max" from="-123519886" to="-37318343#3"/>
    <trip id="veh62" type="veh_passenger" depart="67.64" departLane="best" from="-23799580#2" to="500275911"/>
    <trip id="veh63" type="veh_passenger" depart="68.73" departLane="best" from="433222782#7" to="37317867#2"/>
    <trip id="veh64" type="veh_passenger" depart="69.82" departLane="best" from="-37317875#1" to="-282953348#0"/>
    <trip id="veh65" type="veh_passenger" depart="70.91" departLane="best" from="433222782#7" to="70515144"/>
    <trip id="veh66" type="veh_passenger" depart="72.00" departLane="best" from="-36736734" to="282953342#5"/>
    <trip id="veh67" type="veh_passenger" depart="73.09" departLane="best" from="-283007265#3" to="36854765#2"/>
    <trip id="veh68" type="veh_passenger" depart="74.18" departLane="best" from="36856017" to="-36737263#2"/>
    <trip id="veh69" type="veh_passenger" depart="75.28" departLane="best" from="282953345#0" to="305653328"/>
    <trip id="veh70" type="veh_passenger" depart="76.37" departLane="best" from="-36858398#0" to="42140294"/>
    <trip id="veh71" type="veh_passenger" depart="77.46" departLane="best" from="23799245#0" to="-36854613#1"/>
    <trip id="veh72" type="veh_passenger" depart="78.55" departLane="best" from="35350023#2" to="36740366#0"/>
    <trip id="veh73" type="veh_passenger" depart="79.64" departLane="best" from="-36738958#1" to="-37317864#0"/>
    <trip id="veh74" type="veh_passenger" depart="80.73" departLane="best" from="86811410#1" to="36737495#0"/>
    <trip id="veh75" type="veh_passenger" depart="81.82" departLane="best" from="23799633#4" to="283007266#2"/>
    <trip id="veh76" type="veh_passenger" depart="82.91" departLane="best" from="-36737198#0" to="-36854669"/>
    <trip id="veh77" type="veh_passenger" depart="84.00" departLane="best" from="-433222782#17" to="36736776#1"/>
    <trip id="veh78" type="veh_passenger" depart="85.09" departLane="best" departSpeed="max" from="-36854663" to="-36854641#3"/>
    <trip id="veh79" type="veh_passenger" depart="86.19" departLane="best" from="-283007265#5" to="36737457"/>
    <trip id="veh80" type="veh_passenger" depart="87.28" departLane="best" departSpeed="max" from="-36854663" to="436803908#0"/>
    <trip id="veh81" type="veh_passenger" depart="88.37" departLane="best" from="4071685#1-AddedOnRampEdge" to="-283007265#7"/>
    <trip id="veh82" type="veh_passenger" depart="89.46" departLane="best" from="-36854779#2" to="36737776#1"/>
    <trip id="veh83" type="veh_passenger" depart="90.55" departLane="best" departSpeed="max" from="-36854604" to="-36737461#1"/>
    <trip id="veh84" type="veh_passenger" depart="91.64" departLane="best" departSpeed="max" from="552654534#0" to="358997140#0"/>
    <trip id="veh85" type="veh_passenger" depart="92.73" departLane="best" from="282953342#7" to="36858386#0"/>
    <trip id="veh86" type="veh_passenger" depart="93.82" departLane="best" from="36858433" to="-36738946"/>
    <trip id="veh88" type="veh_passenger" depart="96.00" departLane="best" from="23799245#0" to="26720932#1"/>
    <trip id="veh89" type="veh_passenger" depart="97.09" departLane="best" departSpeed="max" from="36854641#0" to="36737796#1"/>
    <trip id="veh91" type="veh_passenger" depart="99.28" departLane="best" departSpeed="max" from="225807857" to="-433222782#16"/>
    <trip id="veh92" type="veh_passenger" depart="100.37" departLane="best" from="4071685#2-AddedOnRampEdge" to="-36855111#2"/>
    <trip id="veh93" type="veh_passenger" depart="101.46" departLane="best" from="-36738934#0" to="23799555#0"/>
    <trip id="veh94" type="veh_passenger" depart="102.55" departLane="best" from="232908131#0" to="-36858405#1"/>
    <trip id="veh95" type="veh_passenger" depart="103.64" departLane="best" from="-36856031" to="4928623#1-AddedOnRampEdge"/>
    <trip id="veh96" type="veh_passenger" depart="104.73" departLane="best" from="253709440#0" to="4071685#1-AddedOnRampEdge"/>
    <trip id="veh97" type="veh_passenger" depart="105.82" departLane="best" from="86811654#3" to="37317874#2"/>
    <trip id="veh98" type="veh_passenger" depart="106.91" departLane="best" from="86807708-AddedOnRampEdge" to="500275909#0"/>
    <trip id="veh99" type="veh_passenger" depart="108.00" departLane="best" from="404568549" to="-36737776#0"/>
    <trip id="veh100" type="veh_passenger" depart="109.10" departLane="best" from="282953348#6" to="-36854619#0"/>
    <trip id="veh101" type="veh_passenger" depart="110.19" departLane="best" departSpeed="max" from="225807857" to="-282953348#0"/>
    <trip id="veh103" type="veh_passenger" depart="112.37" departLane="best" departSpeed="max" from="282947946#0" to="228313944#0"/>
    <trip id="veh104" type="veh_passenger" depart="113.46" departLane="best" departSpeed="max" from="86807697#0" to="86811410#2"/>
    <trip id="veh105" type="veh_passenger" depart="114.55" departLane="best" from="36736751" to="36739310#0"/>
    <trip id="veh106" type="veh_passenger" depart="115.64" departLane="best" from="-36737495#0" to="-36858438#1"/>
    <trip id="veh107" type="veh_passenger" depart="116.73" departLane="best" from="86807708-AddedOnRampEdge" to="36736743#1"/>
    <trip id="veh108" type="veh_passenger" depart="117.82" departLane="best" from="358997137" to="36854623"/>
    <trip id="veh109" type="veh_passenger" depart="118.91" departLane="best" from="-282953348#1" to="36736762#2"/>
    <trip id="veh112" type="veh_passenger" depart="122.19" departLane="best" departSpeed="max" from="-35346616" to="-36738942"/>
    <trip id="veh113" type="veh_passenger" depart="123.28" departLane="best" from="36737230#2" to="36737999#1"/>
    <trip id="veh114" type="veh_passenger" depart="124.37" departLane="best" departSpeed="max" from="-36854765#2" to="-36737230#0"/>
    <trip id="veh115" type="veh_passenger" depart="125.46" departLane="best" departSpeed="max" from="436489967#0" to="-36855111#0"/>
    <trip id="veh116" type="veh_passenger" depart="126.55" departLane="best" from="36737230#1" to="36737210#0"/>
    <trip id="veh117" type="veh_passenger" depart="127.64" departLane="best" from="23128881-AddedOffRampEdge" to="36736762#1"/>
    <trip id="veh118" type="veh_passenger" depart="128.73" departLane="best" from="299887485#0" to="552614798#2"/>
    <trip id="veh119" type="veh_passenger" depart="129.82" departLane="best" from="-36739316#1" to="36739306"/>
    <trip id="veh120" type="veh_passenger" depart="130.91" departLane="best" from="-36854839" to="123519889"/>
    <trip id="veh121" type="veh_passenger" depart="132.00" departLane="best" departSpeed="max" from="36738942" to="-36858441#1"/>
    <trip id="veh122" type="veh_passenger" depart="133.10" departLane="best" from="-37318346#1" to="36854641#5"/>
    <trip id="veh123" type="veh_passenger" depart="134.19" departLane="best" from="-283007265#7" to="23799647"/>
    <trip id="veh124" type="veh_passenger" depart="135.28" departLane="best" from="-283007265#7" to="-36854617"/>
    <trip id="veh125" type="veh_passenger" depart="136.37" departLane="best" from="-36858398#0" to="552614798#2"/>
    <trip id="veh126" type="veh_passenger" depart="137.46" departLane="best" from="433227270#0" to="433222782#17"/>
    <trip id="veh127" type="veh_passenger" depart="138.55" departLane="best" departSpeed="max" from="-70515144" to="-36737598#0"/>
    <trip id="veh128" type="veh_passenger" depart="139.64" departLane="best" from="37317875#2" to="36738945#3"/>
    <trip id="veh129" type="veh_passenger" depart="140.73" departLane="best" from="36737474" to="86811233"/>
    <trip id="veh130" type="veh_passenger" depart="141.82" departLane="best" from="36738439#0" to="-14339929#0"/>
    <trip id="veh131" type="veh_passenger" depart="142.91" departLane="best" from="36858523#3" to="-36858441#0"/>
    <trip id="veh132" type="veh_passenger" depart="144.01" departLane="best" departSpeed="max" from="36738921" to="70513240#3"/>
    <trip id="veh133" type="veh_passenger" depart="145.10" departLane="best" from="-36737263#0" to="-36737201"/>
    <trip id="veh134" type="veh_passenger" depart="146.19" departLane="best" from="-36737015" to="31900592#0"/>
    <trip id="veh135" type="veh_passenger" depart="147.28" departLane="best" from="-36858417#4" to="36737172#1"/>
    <trip id="veh136" type="veh_passenger" depart="148.37" departLane="best" from="36745629" to="-36739379#0"/>
    <trip id="veh137" type="veh_passenger" depart="149.46" departLane="best" from="36737752#1" to="-36858381"/>
    <trip id="veh138" type="veh_passenger" depart="150.55" departLane="best" from="283007265#2" to="436803908#0"/>
    <trip id="veh139" type="veh_passenger" depart="151.64" departLane="best" from="37342072#0" to="-36736776#1"/>
    <trip id="veh140" type="veh_passenger" depart="152.73" departLane="best" from="23799245#0" to="-36858402#1"/>
    <trip id="veh141" type="veh_passenger" depart="153.82" departLane="best" departSpeed="max" from="-123519889" to="36856016"/>
    <trip id="veh142" type="veh_passenger" depart="154.91" departLane="best" from="36737767" to="-36858377#1"/>
    <trip id="veh143" type="veh_passenger" depart="156.01" departLane="best" from="36854776#0" to="31560507#0"/>
    <trip id="veh144" type="veh_passenger" depart="157.10" departLane="best" from="23799260#1" to="-204866237#1"/>
    <trip id="veh145" type="veh_passenger" depart="158.19" departLane="best" from="-283007266#0" to="433222782#5"/>
    <trip id="veh146" type="veh_passenger" depart="159.28" departLane="best" from="436803908#0" to="305653327"/>
    <trip id="veh147" type="veh_passenger" depart="160.37" departLane="best" from="37317875#4" to="36736756"/>
    <trip id="veh148" type="veh_passenger" depart="161.46" departLane="best" from="-36737482#0" to="-36737263#0"/>
    <trip id="veh149" type="veh_passenger" depart="162.55" departLane="best" from="-37317875#2" to="436489968#0"/>
    <trip id="veh150" type="veh_passenger" depart="163.64" departLane="best" from="36858417#3" to="4071685#1-AddedOnRampEdge"/>
    <trip id="veh151" type="veh_passenger" depart="164.73" departLane="best" departSpeed="max" from="436489967#0" to="-36854611#4"/>
    <trip id="veh152" type="veh_passenger" depart="165.82" departLane="best" from="-36856031" to="-36737172#1"/>
    <trip id="veh153" type="veh_passenger" depart="166.92" departLane="best" from="36858384#0" to="433222782#7"/>
    <trip id="veh154" type="veh_passenger" depart="168.01" departLane="best" from="228313943-AddedOffRampEdge" to="36737216#0"/>
    <trip id="veh155" type="veh_passenger" depart="169.10" departLane="best" from="-36737494#1" to="500275912#0"/>
    <trip id="veh157" type="veh_passenger" depart="171.28" departLane="best" from="36858438#2" to="433222782#3"/>
    <trip id="veh158" type="veh_passenger" depart="172.37" departLane="best" from="-23799633#3" to="36745629"/>
    <trip id="veh159" type="veh_passenger" depart="173.46" departLane="best" from="-42140294" to="549422012"/>
    <trip id="veh160" type="veh_passenger" depart="174.55" departLane="best" from="36858424" to="4071685#2-AddedOnRampEdge"/>
    <trip id="veh161" type="veh_passenger" depart="175.64" departLane="best" from="36858394#1" to="-36737183#0"/>
    <trip id="veh162" type="veh_passenger" depart="176.73" departLane="best" from="433222782#16" to="4071685#1"/>
    <trip id="veh163" type="veh_passenger" depart="177.82" departLane="best" from="-36854625" to="36858523#1"/>
    <trip id="veh164" type="veh_passenger" depart="178.92" departLane="best" from="282947948#2" to="-37265679#0"/>
    <trip id="veh165" type="veh_passenger" depart="180.01" departLane="best" from="36858417#2" to="-36854774"/>
    <trip id="veh166" type="veh_passenger" depart="181.10" departLane="best" from="-23799633#0" to="-36738954"/>
    <trip id="veh167" type="veh_passenger" depart="182.19" departLane="best" departSpeed="max" from="-42140293#3" to="4071685#2-AddedOnRampEdge"/>
    <trip id="veh168" type="veh_passenger" depart="183.28" departLane="best" from="86807708-AddedOffRampEdge" to="-36858408#0"/>
    <trip id="veh169" type="veh_passenger" depart="184.37" departLane="best" from="36737776#2" to="123520118"/>
    <trip id="veh170" type="veh_passenger" depart="185.46" departLane="best" from="86811233" to="299319603#0"/>
    <trip id="veh171" type="veh_passenger" depart="186.55" departLane="best" departSpeed="max" from="552654534#0" to="-36737201"/>
    <trip id="veh172" type="veh_passenger" depart="187.64" departLane="best" from="86807709#1" to="-36738926#0"/>
    <trip id="veh174" type="veh_passenger" depart="189.83" departLane="best" from="-36737166#2" to="23128881-AddedOffRampEdge"/>
    <trip id="veh175" type="veh_passenger" depart="190.92" departLane="best" from="36854640" to="-37317867#2"/>
    <trip id="veh176" type="veh_passenger" depart="192.01" departLane="best" from="36737461#1" to="283007265#6"/>
    <trip id="veh177" type="veh_passenger" depart="193.10" departLane="best" departSpeed="max" from="14254018#0" to="36736737#1"/>
    <trip id="veh178" type="veh_passenger" depart="194.19" departLane="best" from="-36858380#0" to="36738958#0"/>
    <trip id="veh179" type="veh_passenger" depart="195.28" departLane="best" departSpeed="max" from="-123519886" to="4928633"/>
    <trip id="veh180" type="veh_passenger" depart="196.37" departLane="best" from="35350023#0" to="36739311#0"/>
    <trip id="veh181" type="veh_passenger" depart="197.46" departLane="best" departSpeed="max" from="36854778" to="36737782#1"/>
    <trip id="veh182" type="veh_passenger" depart="198.55" departLane="best" from="-70513240#3" to="-283007265#6"/>
    <trip id="veh183" type="veh_passenger" depart="199.64" departLane="best" from="36738923" to="-37342072#2"/>
    <trip id="veh184" type="veh_passenger" depart="200.73" departLane="best" from="-37318343#3" to="37342023#0"/>
    <trip id="veh185" type="veh_passenger" depart="201.83" departLane="best" from="36745631#1" to="-36858522#1"/>
    <trip id="veh186" type="veh_passenger" depart="202.92" departLane="best" from="-37317876#0" to="181331745#0"/>
    <trip id="veh187" type="veh_passenger" depart="204.01" departLane="best" departSpeed="max" from="225807857" to="-36858436#1"/>
    <trip id="veh188" type="veh_passenger" depart="205.10" departLane="best" from="-36737230#1" to="228313943"/>
    <trip id="veh189" type="veh_passenger" depart="206.19" departLane="best" from="552654534#2" to="36738004#2"/>
    <trip id="veh190" type="veh_passenger" depart="207.28" departLane="best" from="436803907" to="36737195#1"/>
    <trip id="veh191" type="veh_passenger" depart="208.37" departLane="best" departSpeed="max" from="-37317864#1" to="305653328"/>
    <trip id="veh192" type="veh_passenger" depart="209.46" departLane="best" departSpeed="max" from="-123519886" to="-36858423"/>
    <trip id="veh193" type="veh_passenger" depart="210.55" departLane="best" from="23799555#0" to="36736745"/>
    <trip id="veh195" type="veh_passenger" depart="212.74" departLane="best" from="253709260#0" to="-36854619#0"/>
    <trip id="veh196" type="veh_passenger" depart="213.83" departLane="best" from="282953342#8" to="436803906#0"/>
    <trip id="veh197" type="veh_passenger" depart="214.92" departLane="best" from="36858417#3" to="-36737998#0"/>
    <trip id="veh198" type="veh_passenger" depart="216.01" departLane="best" from="-36736733#0" to="283007266#0"/>
    <trip id="veh199" type="veh_passenger" depart="217.10" departLane="best" from="36737747" to="-42140294"/>
    <trip id="veh200" type="veh_passenger" depart="218.19" departLane="best" from="37265678#0" to="36854641#4"/>
    <trip id="veh201" type="veh_passenger" depart="219.28" departLane="best" departSpeed="max" from="36738942" to="-36854669"/>
    <trip id="veh202" type="veh_passenger" depart="220.37" departLane="best" from="-36738952" to="-23799682#1"/>
    <trip id="veh203" type="veh_passenger" depart="221.46" departLane="best" from="-36856018#1" to="282947948#0"/>
    <trip id="veh204" type="veh_passenger" depart="222.55" departLane="best" departSpeed="max" from="4055155" to="-283007266#0"/>
    <trip id="veh205" type="veh_passenger" depart="223.64" departLane="best" from="23128749#0" to="36737263#1"/>
    <trip id="veh206" type="veh_passenger" depart="224.74" departLane="best" from="283007265#9" to="-36855111#0"/>
    <trip id="veh207" type="veh_passenger" depart="225.83" departLane="best" from="36738440" to="-14254018#0"/>
    <trip id="veh208" type="veh_passenger" depart="226.92" departLane="best" departSpeed="max" from="36854840#0" to="36856012#0"/>
    <trip id="veh209" type="veh_passenger" depart="228.01" departLane="best" from="-36737004#1" to="228314609"/>
    <trip id="veh211" type="veh_passenger" depart="230.19" departLane="best" from="299319605#1" to="-282953342#7"/>
    <trip id="veh212" type="veh_passenger" depart="231.28" departLane="best" from="-36856030" to="37342023#0"/>
    <trip id="veh213" type="veh_passenger" depart="232.37" departLane="best" departSpeed="max" from="282947946#0" to="36858420"/>
    <trip id="veh214" type="veh_passenger" depart="233.46" departLane="best" from="36738934#0" to="86811233"/>
    <trip id="veh215" type="veh_passenger" depart="234.55" departLane="best" from="36737237#0" to="86807694"/>
    <trip id="veh216" type="veh_passenger" depart="235.65" departLane="best" departSpeed="max" from="436489967#0" to="36737188"/>
    <trip id="veh217" type="veh_passenger" depart="236.74" departLane="best" from="36745631#1" to="283007265#11"/>
    <trip id="veh218" type="veh_passenger" depart="237.83" departLane="best" from="37317872" to="305653328"/>
    <trip id="veh219" type="veh_passenger" depart="238.92" departLane="best" departSpeed="max" from="436489967#0" to="36854611#5"/>
    <trip id="veh220" type="veh_passenger" depart="240.01" departLane="best" from="282953342#9" to="-36856037#0"/>
    <trip id="veh221" type="veh_passenger" depart="241.10" departLane="best" from="-36856022#1" to="36737470"/>
    <trip id="veh223" type="veh_passenger" depart="243.28" departLane="best" from="36737504#1" to="-36858396"/>
    <trip id="veh224" type="veh_passenger" depart="244.37" departLane="best" from="-283007266#3" to="-36858422#0"/>
    <trip id="veh225" type="veh_passenger" depart="245.46" departLane="best" from="-36858417#2" to="-37317876#0"/>
    <trip id="veh226" type="veh_passenger" depart="246.55" departLane="best" from="35350023#4" to="-36737475#1"/>
    <trip id="veh227" type="veh_passenger" depart="247.65" departLane="best" from="-36854664#1" to="36738447"/>
    <trip id="veh228" type="veh_passenger" depart="248.74" departLane="best" from="36745503#1" to="-283007265#0"/>
    <trip id="veh229" type="veh_passenger" depart="249.83" departLane="best" from="228313944#0" to="299887486#0"/>
    <trip id="veh230" type="veh_passenger" depart="250.92" departLane="best" from="23128749#1" to="-36745503#0"/>
    <trip id="veh231" type="veh_passenger" depart="252.01" departLane="best" from="23128881-AddedOffRampEdge" to="436803908#0"/>
    <trip id="veh232" type="veh_passenger" depart="253.10" departLane="best" from="36737187#0" to="36738926#1"/>
    <trip id="veh233" type="veh_passenger" depart="254.19" departLane="best" from="4071685#0" to="36854842#0"/>
    <trip id="veh234" type="veh_passenger" depart="255.28" departLane="best" from="123520118" to="-14254018#0"/>
    <trip id="veh235" type="veh_passenger" depart="256.37" departLane="best" from="-436803906#0" to="36854644"/>
    <trip id="veh236" type="veh_passenger" depart="257.46" departLane="best" departSpeed="max" from="4055155" to="86807695"/>
    <trip id="veh237" type="veh_passenger" depart="258.56" departLane="best" from="23128881-AddedOffRampEdge" to="36854620"/>
    <trip id="veh238" type="veh_passenger" depart="259.65" departLane="best" from="36735317#0" to="36737166#1"/>
    <trip id="veh239" type="veh_passenger" depart="260.74" departLane="best" from="-36854619#0" to="-36854641#1"/>
    <trip id="veh240" type="veh_passenger" depart="261.83" departLane="best" from="23799632" to="-27372016#0"/>
    <trip id="veh241" type="veh_passenger" depart="262.92" departLane="best" from="-433222782#13" to="36738433"/>
    <trip id="veh242" type="veh_passenger" depart="264.01" departLane="best" from="228313943" to="-36737775#0"/>
    <trip id="veh243" type="veh_passenger" depart="265.10" departLane="best" from="282953342#1" to="-36737263#1"/>
    <trip id="veh244" type="veh_passenger" depart="266.19" departLane="best" from="36737495#0" to="-27371966#0"/>
    <trip id="veh245" type="veh_passenger" depart="267.28" departLane="best" from="181331742#0" to="35348829"/>
    <trip id="veh246" type="veh_passenger" depart="268.37" departLane="best" from="-23799724#0" to="36737478"/>
    <trip id="veh247" type="veh_passenger" depart="269.46" departLane="best" from="-36737456#1" to="253709260#0"/>
    <trip id="veh249" type="veh_passenger" depart="271.65" departLane="best" from="-36745503#0" to="-37318347#0"/>
    <trip id="veh251" type="veh_passenger" depart="273.83" departLane="best" departSpeed="max" from="36854840#0" to="37317867#3"/>
    <trip id="veh252" type="veh_passenger" depart="274.92" departLane="best" from="-36858376#0" to="-36736735"/>
    <trip id="veh253" type="veh_passenger" depart="276.01" departLane="best" from="-23799580#2" to="299887484#2"/>
    <trip id="veh254" type="veh_passenger" depart="277.10" departLane="best" from="86811654#3" to="-436489670#1"/>
    <trip id="veh255" type="veh_passenger" depart="278.19" departLane="best" from="36738005#1" to="36858377#1"/>
    <trip id="veh256" type="veh_passenger" depart="279.28" departLane="best" from="36738436#1" to="36854660"/>
    <trip id="veh257" type="veh_passenger" depart="280.37" departLane="best" departSpeed="max" from="70515148" to="-36739316#1"/>
    <trip id="veh258" type="veh_passenger" depart="281.47" departLane="best" from="-23799621#1" to="-36737504#0"/>
    <trip id="veh259" type="veh_passenger" depart="282.56" departLane="best" from="-36737224" to="36737776#2"/>
    <trip id="veh260" type="veh_passenger" depart="283.65" departLane="best" from="36736788" to="-36854641#0"/>
    <trip id="veh261" type="veh_passenger" depart="284.74" departLane="best" from="36739316#2" to="36855111#3"/>
    <trip id="veh262" type="veh_passenger" depart="285.83" departLane="best" from="-36737754#1" to="36737175#1"/>
    <trip id="veh263" type="veh_passenger" depart="286.92" departLane="best" departSpeed="max" from="36854836" to="-36737198#1"/>