<?xml version="1.0" encoding="UTF-8"?>

<!-- generated on 02/28/20 22:53:41 by Eclipse SUMO polyconvert Version 1.4.0
<configuration xmlns:xsi="http://www.w3.org/2001/XMLSchema-instance" xsi:noNamespaceSchemaLocation="http://sumo.dlr.de/xsd/polyconvertConfiguration.xsd">

    <input>
        <net-file value="osm.net.xml"/>
        <osm-files value="osm_bbox.osm.xml"/>
        <osm.keep-full-type value="true"/>
        <type-file value="C:\Program%20Files%20(x86)\Eclipse\Sumo\data\typemap\osmPolyconvert.typ.xml"/>
    </input>

    <output>
        <output-file value="osm.poly.xml"/>
    </output>

    <processing>
        <poi-layer-offset value="5"/>
    </processing>

    <report>
        <verbose value="true"/>
    </report>

</configuration>
-->

<additional xmlns:xsi="http://www.w3.org/2001/XMLSchema-instance" xsi:noNamespaceSchemaLocation="http://sumo.dlr.de/xsd/additional_file.xsd">
    <location netOffset="-642595.04,-4849906.87" convBoundary="-7527.77,-8225.82,9073.16,7640.25" origBoundary="-79.323318,43.715862,-79.114760,43.856289" projParameter="+proj=utm +zone=17 +ellps=WGS84 +datum=WGS84 +units=m +no_defs"/>

    <poly id="101132478" type="amenity.restaurant" color="237,199,199" fill="1" layer="-1.00" shape="1997.417259,982.395958 1998.825049,976.870603 1999.970630,976.006534 2010.051701,978.781216 2016.662780,956.034378 1997.224608,950.500736 1990.930563,973.476712 1996.052758,974.810259 1995.228972,975.681316 1993.577427,981.312497 1997.417259,982.395958"/>
    <poly id="101132478#1" type="building.retail" color="255,230,230" fill="1" layer="-1.00" shape="1997.417259,982.395958 1998.825049,976.870603 1999.970630,976.006534 2010.051701,978.781216 2016.662780,956.034378 1997.224608,950.500736 1990.930563,973.476712 1996.052758,974.810259 1995.228972,975.681316 1993.577427,981.312497 1997.417259,982.395958"/>
    <poly id="101132480" type="building.retail" color="255,230,230" fill="1" layer="-1.00" shape="1812.353258,987.268743 1825.410034,986.440779 1837.740367,985.708199 1841.454531,981.455155 1839.747992,952.527327 1840.091474,951.534713 1834.085766,946.404094 1833.598252,946.615755 1815.146486,947.548920 1816.383001,968.466012 1816.716328,975.362587 1811.560377,975.584107 1812.353258,987.268743"/>
    <poly id="101132480#1" type="shop.alcohol" color="237,199,255" fill="1" layer="-1.00" shape="1812.353258,987.268743 1825.410034,986.440779 1837.740367,985.708199 1841.454531,981.455155 1839.747992,952.527327 1840.091474,951.534713 1834.085766,946.404094 1833.598252,946.615755 1815.146486,947.548920 1816.383001,968.466012 1816.716328,975.362587 1811.560377,975.584107 1812.353258,987.268743"/>
    <poly id="101132482" type="amenity.restaurant" color="237,199,199" fill="1" layer="-1.00" shape="1886.461761,932.539518 1894.311434,912.041827 1870.759553,903.196852 1862.663777,923.911465 1869.529410,926.505043 1868.447418,928.148343 1875.398313,930.521541 1876.643615,928.770667 1886.461761,932.539518"/>
    <poly id="101132482#1" type="building.retail" color="255,230,230" fill="1" layer="-1.00" shape="1886.461761,932.539518 1894.311434,912.041827 1870.759553,903.196852 1862.663777,923.911465 1869.529410,926.505043 1868.447418,928.148343 1875.398313,930.521541 1876.643615,928.770667 1886.461761,932.539518"/>
    <poly id="101132483" type="building.retail" color="255,230,230" fill="1" layer="-1.00" shape="2030.416834,1189.871202 2043.294631,1175.038840 2008.776425,1144.953648 2001.771993,1152.468694 1996.007934,1147.343163 1990.146658,1154.105218 1996.856776,1160.140242 1997.268659,1159.704713 2017.701424,1178.705348 2025.759777,1185.658640 2030.416834,1189.871202"/>
    <poly id="111922288" type="amenity.parking" color="184,184,179" fill="1" layer="-1.00" shape="4949.195305,2431.592471 4977.594013,2441.378558 4983.491456,2424.374459 4955.084392,2414.599277 4949.195305,2431.592471"/>
    <poly id="111923353" type="building.detached" color="255,230,230" fill="1" layer="-1.00" shape="4686.649723,2463.913315 4693.752290,2462.959306 4693.202251,2458.724536 4695.622577,2458.444744 4695.130846,2455.211353 4695.065164,2454.543173 4693.853771,2454.738603 4692.401083,2454.928692 4691.502964,2448.241558 4684.722109,2449.202690 4685.274613,2453.326393 4678.413332,2454.285751 4676.960644,2454.475844 4676.314732,2454.572670 4677.207949,2461.481935 4686.167820,2460.235659 4686.649723,2463.913315"/>
    <poly id="111923356" type="amenity.parking" color="184,184,179" fill="1" layer="-1.00" shape="4650.831122,2462.865085 4687.193570,2384.073854 4700.379861,2389.666172 4699.328176,2394.643336 4703.082091,2395.193134 4701.521436,2401.714725 4697.148441,2401.140114 4695.150398,2427.787138 4697.460911,2429.560653 4744.604117,2436.693703 4746.739971,2418.005997 4740.952295,2417.722285 4742.991254,2403.410599 4750.465768,2405.287355 4790.129684,2418.033416 4789.213537,2423.791417 4785.481707,2422.608670 4784.587382,2427.744878 4756.623613,2424.469838 4758.162503,2418.570052 4755.991962,2417.744144 4754.112683,2431.748224 4755.827043,2432.097323 4757.048803,2426.346085 4783.594671,2430.056434 4781.925889,2434.553213 4785.863837,2433.695897 4787.971332,2430.464503 4786.844502,2424.661254 4807.002328,2423.585364 4807.340586,2429.748961 4838.133328,2428.464256 4839.435754,2440.505297 4792.074944,2443.200959 4792.178505,2438.525058 4784.112159,2441.935618 4756.024009,2444.280544 4748.153229,2446.128671 4717.091704,2441.385082 4716.173339,2447.609750 4683.375638,2443.139024 4684.520468,2433.952436 4679.115560,2430.554751 4678.446649,2432.417891 4682.920826,2435.328269 4666.543950,2467.735402 4661.212497,2467.928561 4657.776906,2467.541398 4650.831122,2462.865085"/>
    <poly id="111935267" type="leisure.playground" color="207,245,201" fill="1" layer="-2.00" shape="4372.871419,2363.623586 4368.403264,2366.991876 4366.981962,2376.327961 4368.673175,2382.099136 4389.442967,2388.291676 4392.107340,2377.327352 4387.509917,2372.703196 4376.625022,2364.917699 4372.871419,2363.623586"/>
    <poly id="111936418" type="natural.wood" color="140,196,107" fill="1" layer="-4.00" shape="4378.216746,2521.299669 4379.839933,2514.846070 4386.055580,2514.694442 4393.609838,2507.493997 4398.352431,2506.998704 4393.434181,2515.446361 4384.638968,2525.275181 4378.216746,2521.299669"/>
    <poly id="111936420" type="natural.wood" color="140,196,107" fill="1" layer="-4.00" shape="4368.858999,2529.638179 4362.488772,2523.308072 4365.235656,2519.535071 4369.946788,2520.828107 4368.858999,2529.638179"/>
    <poly id="111936426" type="natural.wood" color="140,196,107" fill="1" layer="-4.00" shape="4331.788572,2587.491299 4337.402589,2587.615259 4347.853175,2569.866695 4355.828540,2557.075027 4357.141107,2551.203504 4346.261176,2548.307462 4341.473248,2550.857522 4333.193691,2563.942515 4333.380682,2568.958187 4338.077365,2570.539796 4329.262930,2581.246112 4331.788572,2587.491299"/>
    <poly id="111936428" type="natural.wood" color="140,196,107" fill="1" layer="-4.00" shape="4269.984457,2585.838045 4293.240574,2577.795072 4293.952703,2572.510336 4291.064459,2569.201858 4274.141317,2571.773021 4270.516148,2575.237759 4269.984457,2585.838045"/>
    <poly id="111936431" type="natural.wood" color="140,196,107" fill="1" layer="-4.00" shape="4421.559395,2715.362752 4411.268306,2712.779626 4392.158264,2693.789183 4373.197996,2668.012632 4380.360218,2651.958309 4402.295294,2663.643811 4412.738980,2686.276477 4420.780763,2697.066181 4421.559395,2715.362752"/>
    <poly id="111936432" type="natural.wood" color="140,196,107" fill="1" layer="-4.00" shape="4290.173445,2649.666884 4279.339007,2644.716216 4281.653401,2633.555227 4286.701363,2619.220965 4292.633979,2618.762981 4293.006345,2628.505370 4290.173445,2649.666884"/>
    <poly id="111936435" type="natural.wood" color="140,196,107" fill="1" layer="-4.00" shape="4330.264932,2535.864326 4337.734497,2532.495615 4339.886175,2528.709462 4337.468113,2523.422286 4329.491627,2528.246598 4330.264932,2535.864326"/>
    <poly id="111936437" type="natural.wood" color="140,196,107" fill="1" layer="-4.00" shape="4297.439556,2588.799810 4296.741941,2579.939206 4308.021769,2551.596866 4311.898956,2550.204555 4317.500009,2550.917150 4314.696229,2557.633611 4302.407833,2591.565269 4297.439556,2588.799810"/>
    <poly id="111936440" type="natural.wood" color="140,196,107" fill="1" layer="-4.00" shape="4384.633001,2606.059814 4382.914133,2603.366063 4387.349191,2590.196209 4399.279826,2572.480411 4407.343155,2568.824869 4414.108544,2570.741147 4413.061132,2578.085313 4407.665009,2581.210830 4397.007707,2594.832161 4397.201027,2599.559063 4393.485030,2607.133197 4391.351306,2609.741851 4384.633001,2606.059814"/>
    <poly id="111936441" type="natural.wood" color="140,196,107" fill="1" layer="-4.00" shape="4262.682421,2595.111031 4241.948817,2582.563559 4242.965113,2576.985506 4246.234098,2576.168677 4263.142526,2587.753887 4264.272881,2590.134591 4262.682421,2595.111031"/>
    <poly id="111952475" type="building.garage" color="255,230,230" fill="1" layer="-1.00" shape="4895.666057,2471.509552 4897.069405,2467.373615 4898.235584,2467.766162 4899.328701,2464.556766 4903.162589,2465.852962 4900.674162,2473.198472 4895.666057,2471.509552"/>
    <poly id="111953279" type="landuse.retail" color="194,194,130" fill="1" layer="-3.00" shape="4432.225845,2256.614196 4518.872140,2285.709149 4548.067761,2207.092151 4538.183409,2200.273044 4534.946421,2209.824540 4432.225845,2256.614196"/>
    <poly id="112439819" type="amenity.parking" color="184,184,179" fill="1" layer="-1.00" shape="654.951522,1902.231500 665.250923,1908.275752 670.203739,1899.881850 675.941740,1903.238892 692.387650,1875.346783 687.706780,1872.601410 689.452484,1869.638811 682.816512,1865.751287 680.460902,1869.756377 675.740283,1866.987934 654.951522,1902.231500"/>
    <poly id="112439820" type="amenity.parking" color="184,184,179" fill="1" layer="-1.00" shape="706.260001,2144.517264 701.508616,2141.692571 698.420388,2146.837504 661.006232,2124.541856 664.086157,2119.407839 659.493694,2116.675492 672.222384,2095.459302 678.189406,2099.010185 679.958466,2096.081423 715.998429,2117.547532 711.674786,2124.754874 716.426179,2127.579574 706.260001,2144.517264"/>
    <poly id="112439821" type="amenity.parking" color="184,184,179" fill="1" layer="-1.00" shape="656.288304,1935.840064 662.169097,1924.710409 695.613272,1944.564836 689.224128,1958.372571 678.151901,1948.233616 656.288304,1935.840064"/>
    <poly id="112439822" type="amenity.parking" color="184,184,179" fill="1" layer="-1.00" shape="571.096804,1917.583807 583.580330,1893.550899 600.544064,1902.916383 586.940905,1926.247357 581.590335,1923.209857 579.981595,1924.297539 574.616685,1921.926443 574.669724,1919.460770 571.096804,1917.583807"/>
    <poly id="112439823" type="amenity.parking" color="184,184,179" fill="1" layer="-1.00" shape="608.696909,1880.812688 622.070118,1888.745337 624.642629,1884.756007 632.287444,1886.265039 636.819346,1885.462510 639.813395,1882.826781 645.382663,1886.546853 663.420301,1856.111001 646.689794,1846.750379 644.371405,1849.400646 630.750529,1842.129332 612.775860,1869.644224 608.696909,1880.812688"/>
    <poly id="112439824" type="amenity.parking" color="184,184,179" fill="1" layer="-1.00" shape="604.159142,1939.863027 620.553054,1950.271927 635.352172,1927.088985 618.957984,1916.691155 604.159142,1939.863027"/>
    <poly id="112439900" type="amenity.parking" color="184,184,179" fill="1" layer="-1.00" shape="482.906979,1810.803456 492.173490,1795.279515 447.499467,1768.784452 438.040862,1784.637677 482.906979,1810.803456"/>
    <poly id="112439901" type="amenity.parking" color="184,184,179" fill="1" layer="-1.00" shape="615.940663,2088.703198 402.835224,1962.813855 369.887288,1963.283883 248.918276,1886.848948 250.218521,1881.009851 237.992399,1875.480499 240.441758,1870.843906 234.050135,1867.184319 267.622657,1809.890419 272.852558,1812.936177 275.851493,1810.067048 283.967079,1815.519337 286.449807,1809.705631 307.328224,1823.054600 309.785693,1818.418204 363.172476,1851.788746 368.046104,1843.692952 487.341409,1919.727399 483.840627,1923.852388 503.334061,1936.083281 516.482134,1944.755367 496.593589,1973.362792 545.348335,2000.123815 525.372473,2032.418384 528.983170,2034.407255 561.356588,1982.067030 572.923008,1987.193895 580.547736,1973.545982 642.587706,2011.927555 638.330749,2018.280771 642.998480,2020.136889 628.411051,2042.090958 643.479632,2052.371403 624.517205,2086.543171 619.275008,2084.085778 615.940663,2088.703198"/>
    <poly id="112439902" type="amenity.parking" color="184,184,179" fill="1" layer="-1.00" shape="785.478170,2017.804517 820.200768,1959.993506 806.648904,1951.778797 785.672455,1986.373452 789.730531,1988.138757 787.042783,1990.003193 781.521542,1988.917524 779.368094,1988.393326 782.615980,1982.940735 763.589037,1971.496868 757.833009,1981.684625 781.618095,1995.642236 781.550862,1998.763200 774.803514,2010.140772 785.478170,2017.804517"/>
    <poly id="112439903" type="amenity.parking" color="184,184,179" fill="1" layer="-1.00" shape="822.690771,2062.909019 839.982106,2032.768670 850.436124,2038.716553 833.144515,2068.867983 822.690771,2062.909019"/>
    <poly id="112439905" type="amenity.parking" color="184,184,179" fill="1" layer="-1.00" shape="840.636408,2031.160449 816.455891,2015.771786 822.077024,2006.992367 845.225540,2021.725435 840.636408,2031.160449"/>
    <poly id="112439906" type="amenity.parking" color="184,184,179" fill="1" layer="-1.00" shape="810.287903,1997.271091 817.734921,1984.797449 827.690810,1990.712334 820.252061,2003.175032 810.287903,1997.271091"/>
    <poly id="112440002" type="building.apartments" color="255,230,230" fill="1" layer="-1.00" shape="781.758371,2200.179986 816.295290,2143.476159 846.491709,2161.239089 856.848593,2143.683448 822.202827,2123.268878 810.446879,2116.126242 765.236310,2190.156797 781.758371,2200.179986"/>
    <poly id="112440842" type="leisure.playground" color="207,245,201" fill="1" layer="-2.00" shape="988.788691,1716.635278 1016.451725,1708.287077 1018.242863,1707.703462 1010.430621,1686.344706 981.325928,1696.606403 988.788691,1716.635278"/>
    <poly id="112441014" type="amenity.parking" color="184,184,179" fill="1" layer="-1.00" shape="472.141886,2211.251214 487.869005,2217.467453 485.869706,2223.624837 509.945850,2231.887415 511.938483,2226.041024 517.782339,2228.955746 525.370994,2208.362147 535.253978,2211.674878 539.212547,2201.226054 547.575257,2202.639327 554.604654,2179.244673 491.072623,2140.698440 471.795694,2198.531908 477.053441,2199.889456 472.141886,2211.251214"/>
    <poly id="123422827" type="leisure.playground" color="207,245,201" fill="1" layer="-2.00" shape="830.407958,1986.737307 845.343585,1984.136782 843.128347,1971.543825 828.200497,1974.155636 830.407958,1986.737307"/>
    <poly id="123422828" type="leisure.playground" color="207,245,201" fill="1" layer="-2.00" shape="796.750751,1958.121494 785.262260,1954.984925 791.717339,1940.367534 799.049206,1935.480741 802.606503,1938.079759 804.661613,1943.168790 802.782296,1946.728519 796.750751,1958.121494"/>
    <poly id="123422829" type="leisure.playground" color="207,245,201" fill="1" layer="-2.00" shape="970.378688,2008.245162 970.538602,2008.293059 970.683626,2008.285076 970.853021,2008.266506 971.039222,2008.214963 974.144122,2007.159648 974.484589,2007.044763 974.841862,2006.896904 974.963954,2006.832867 975.086525,2006.746617 975.184725,2006.670953 975.275122,2006.584008 975.349671,2006.485610 975.440786,2006.365346 975.532380,2006.222868 979.616651,1999.310538 979.675353,1999.200686 979.702119,1999.079034 979.712319,1998.979248 979.707869,1998.812475 979.540664,1996.864302 979.507395,1996.541342 979.485899,1996.418649 979.472208,1996.307235 979.442190,1996.206582 979.381195,1996.049700 979.326807,1995.959633 979.224396,1995.857417 979.121985,1995.755202 978.876945,1995.549903 976.277690,1993.682608 976.118974,1993.579178 975.959778,1993.497962 975.784735,1993.405291 975.632865,1993.357568 975.520733,1993.332925 975.384231,1993.318869 975.239206,1993.326852 975.110029,1993.346289 974.980612,1993.376833 974.778324,1993.428028 972.115439,1994.137301 971.653838,1994.271797 971.305327,1994.386509 971.045535,1994.492023 970.745046,1994.618883 970.476492,1994.757543 969.849227,1995.110702 963.853931,1999.214978 963.674336,1999.333334 963.575417,1999.442319 963.516476,1999.563277 963.513362,1999.707663 963.556114,1999.964157 964.367022,2003.781885 964.426819,2003.994299 964.503182,2004.184846 964.604395,2004.342595 964.714610,2004.456090 964.865043,2004.570453 970.076864,2008.060863 970.259471,2008.175920 970.378688,2008.245162"/>
    <poly id="123524077" type="natural.wood" color="140,196,107" fill="1" layer="-4.00" shape="3622.502960,1525.217411 3629.167286,1549.743519 3661.232738,1584.461809 3699.828118,1599.622204 3713.302128,1614.563971 3711.316112,1632.055058 3690.315071,1655.662082 3683.181187,1663.139249 3650.244681,1654.170412 3517.195047,1581.587451 3496.914893,1563.207577 3492.524423,1531.130927 3562.879479,1508.117852 3622.502960,1525.217411"/>
    <poly id="123524079" type="natural.wood" color="140,196,107" fill="1" layer="-4.00" shape="3345.214630,1329.817626 3350.551799,1350.325099 3378.962240,1377.861226 3402.972717,1425.458107 3405.174296,1448.008144 3402.895867,1468.593111 3382.105611,1465.370277 3367.603901,1454.673695 3357.357339,1431.969504 3353.844279,1416.735750 3342.490364,1402.319064 3303.175299,1336.185580 3302.076295,1318.393460 3345.214630,1329.817626"/>
    <poly id="123536061" type="amenity.parking" color="184,184,179" fill="1" layer="-1.00" shape="651.740690,702.013934 625.637779,691.551828 626.211120,688.097294 621.756788,687.501453 650.553292,595.582242 671.622362,585.634941 684.612136,581.958664 704.796377,590.315709 759.683997,624.654693 769.949444,620.030988 790.853957,628.570489 787.952926,634.708381 811.001363,644.605305 794.910531,696.972972 769.287366,688.909656 765.618598,698.931254 746.897863,691.405558 751.238408,682.331802 731.759198,676.012116 726.784544,676.405062 700.668407,666.931324 699.062917,672.341533 673.904268,664.377484 675.498984,659.467067 667.579611,658.307720 662.946832,665.630693 658.269060,675.419510 658.098682,683.338524 651.740690,702.013934"/>
    <poly id="123757010" type="amenity.place_of_worship" color="237,199,199" fill="1" layer="-1.00" shape="726.629819,720.237623 727.579337,717.257887 735.059198,695.084263 734.581269,694.851739 736.560772,688.894001 734.244401,688.066314 722.096984,684.026835 723.470281,680.056161 716.755338,677.911510 718.566753,672.283502 711.612835,670.022594 709.460493,676.532207 705.705539,675.229097 704.673183,678.318171 703.795381,677.965926 699.322648,691.314892 704.355263,693.089966 700.315869,705.003729 699.371142,707.761337 705.203481,709.775859 715.112555,713.100426 714.335898,715.528296 721.048412,717.784012 720.877946,718.224814 726.629819,720.237623"/>
    <poly id="123757010#1" type="building.church" color="255,230,230" fill="1" layer="-1.00" shape="726.629819,720.237623 727.579337,717.257887 735.059198,695.084263 734.581269,694.851739 736.560772,688.894001 734.244401,688.066314 722.096984,684.026835 723.470281,680.056161 716.755338,677.911510 718.566753,672.283502 711.612835,670.022594 709.460493,676.532207 705.705539,675.229097 704.673183,678.318171 703.795381,677.965926 699.322648,691.314892 704.355263,693.089966 700.315869,705.003729 699.371142,707.761337 705.203481,709.775859 715.112555,713.100426 714.335898,715.528296 721.048412,717.784012 720.877946,718.224814 726.629819,720.237623"/>
    <poly id="123806004" type="amenity.parking" color="184,184,179" fill="1" layer="-1.00" shape="2118.952266,985.358840 2072.280816,1147.088941 2062.316838,1157.828728 2053.916915,1155.112704 2051.718635,1158.865199 2056.276988,1163.175641 2049.355779,1170.192413 2045.197410,1166.735168 2041.754708,1169.605015 2019.726645,1151.425264 2023.632628,1146.865354 2002.202106,1140.077196 1991.921383,1145.765418 1973.033192,1139.021460 1976.631447,1128.987805 1980.009100,1129.483406 1980.519080,1125.271974 1984.741428,1125.785921 2029.877031,956.854787 2114.830745,980.202241 2113.894296,984.404397 2118.952266,985.358840"/>
    <poly id="123806005" type="amenity.parking" color="184,184,179" fill="1" layer="-1.00" shape="1969.890612,1088.783166 1942.950526,1062.907632 1968.527654,1034.794379 1972.259774,1038.242313 1975.266088,1036.196342 1921.385532,984.434252 1876.588052,1040.376896 1873.673116,1038.213501 1868.904402,1043.588164 1850.616795,1028.434823 1854.522483,1023.885922 1851.198600,1021.280303 1893.762450,970.344911 1897.494645,973.792801 1904.469482,964.676896 1909.055549,967.721075 1915.577902,959.428748 1911.454855,954.705613 1929.456855,943.717834 1946.920824,938.607704 1963.422092,938.543723 1989.947745,944.608981 1987.703854,950.460649 1991.490768,951.387390 1984.075220,981.161698 2000.448298,986.995427 2001.884144,979.437211 2011.546235,982.602823 2001.014530,1019.476582 1996.719025,1022.327933 2002.103644,1027.511889 1992.611823,1036.150782 1990.104964,1034.840698 1984.492566,1039.774710 1995.224478,1052.230828 1987.931609,1056.717200 1991.636208,1061.431302 1977.292935,1079.254367 1983.485797,1086.133754 1976.981799,1093.581911 1969.890612,1088.783166"/>
    <poly id="123806118" type="amenity.parking" color="184,184,179" fill="1" layer="-1.00" shape="1807.644290,929.773922 1812.252016,929.596067 1813.273519,932.596198 1809.924116,937.101629 1810.033831,944.660064 1835.250859,942.784683 1837.624137,945.803032 1843.317676,945.659865 1843.149447,940.800338 1848.030694,940.628441 1847.866838,948.180943 1841.645858,947.779294 1842.980523,973.443283 1853.826528,972.867431 1854.587957,962.627715 1859.351830,967.864751 1874.064613,951.182865 1863.667779,943.667894 1862.831866,944.727606 1859.386363,941.419299 1853.949813,947.523978 1857.550671,951.091226 1856.435450,952.411563 1852.409973,950.979690 1850.622461,945.818346 1854.030686,938.602918 1854.606303,924.314458 1857.819183,913.861246 1861.844682,915.293122 1866.953929,904.614376 1863.727138,903.466512 1866.328637,895.966901 1860.154599,893.399445 1861.623032,888.042060 1815.076319,874.342562 1813.275611,882.404039 1806.236242,882.251359 1807.644290,929.773922"/>
    <poly id="123806387" type="leisure.playground" color="207,245,201" fill="1" layer="-2.00" shape="1605.619008,990.466062 1605.420611,991.450718 1604.460241,998.630384 1604.429852,998.918633 1604.431402,999.218686 1604.457567,999.497049 1604.523716,999.787389 1604.636210,1000.167628 1604.821107,1000.549435 1605.037221,1000.976365 1605.332581,1001.460571 1605.590363,1001.821733 1605.895692,1002.217261 1606.326130,1002.782175 1606.631940,1003.155490 1606.970170,1003.518394 1607.276942,1003.847282 1607.655637,1004.199951 1608.131351,1004.532498 1608.655574,1004.854984 1609.252682,1005.156825 1609.731283,1005.356093 1616.011192,1008.236742 1616.617066,1008.505438 1617.239751,1008.741163 1617.767102,1008.919264 1618.240063,1009.007292 1618.448988,1009.022929 1618.666680,1009.005421 1618.973586,1008.956510 1619.209292,1008.850498 1619.380640,1008.743091 1619.560513,1008.613645 1619.691636,1008.505367 1619.814955,1008.385808 1619.954845,1008.244385 1620.094976,1008.091855 1620.227542,1007.916937 1620.368635,1007.719980 1620.742682,1007.172491 1621.182772,1006.548650 1621.795172,1005.772976 1622.347169,1005.184894 1622.846565,1004.795686 1623.295287,1004.516499 1623.944167,1004.286095 1624.526042,1004.176469 1626.238044,1003.913536 1627.901537,1003.660664 1628.743975,1003.412230 1629.606834,1002.964225 1630.460340,1002.204887 1630.829230,1001.523944 1630.972144,1000.871442 1630.970009,1000.226910 1630.827880,999.357108 1630.624864,998.697111 1630.253389,998.011242 1629.851177,997.258036 1629.086707,996.508094 1628.598272,996.019705 1628.106364,995.320115 1627.915002,994.493694 1627.874327,993.770544 1627.928160,992.771645 1627.945484,991.971968 1627.924026,991.104780 1627.825834,990.435943 1627.541648,989.807524 1627.054175,989.274708 1626.297748,988.524941 1625.365056,987.738020 1624.738414,987.313308 1615.866234,981.487423 1615.213156,981.539948 1614.647850,981.627709 1614.097912,981.749139 1613.587237,981.915867 1613.026608,982.159296 1612.562998,982.382602 1612.074292,982.649812 1611.535873,982.982617 1610.874616,983.412767 1610.311581,983.767262 1609.763674,984.166532 1609.345447,984.524164 1608.966964,984.904880 1608.432741,985.415565 1608.060859,985.863095 1607.654632,986.409888 1607.205054,987.100195 1606.852736,987.759274 1606.416602,988.572103 1606.080373,989.231530 1605.817511,989.848099 1605.619008,990.466062"/>
    <poly id="123806388" type="leisure.playground" color="207,245,201" fill="1" layer="-2.00" shape="1525.459874,963.084249 1524.670367,959.400257 1525.817015,956.624899 1529.355903,953.023493 1531.555917,951.782147 1532.255531,949.208237 1535.269946,950.129105 1535.218491,952.505921 1538.856408,954.740372 1539.985640,952.398001 1542.787409,953.103144 1542.283012,956.325765 1542.637845,960.011461 1540.338395,966.217637 1537.466661,968.744521 1533.360295,968.444499 1526.930237,965.060648 1525.459874,963.084249"/>
    <poly id="123806389" type="amenity.parking" color="184,184,179" fill="1" layer="-1.00" shape="1534.414464,1063.628999 1486.431330,1048.278343 1487.199236,1045.894809 1481.636119,1044.107640 1488.072842,1024.123430 1501.645430,1028.461887 1499.747204,1034.354516 1539.721239,1047.142819 1534.414464,1063.628999"/>
    <poly id="123806390" type="leisure.pitch" color="207,245,201" fill="1" layer="-2.00" shape="1550.415053,1078.865270 1573.450543,1017.882315 1579.134726,1015.194115 1636.421009,1038.025227 1627.858876,1062.474675 1627.059840,1064.435272 1626.042016,1066.835602 1624.942678,1068.911924 1623.484319,1071.213817 1622.014097,1072.948750 1619.982532,1074.960430 1617.816132,1076.880296 1615.413203,1078.572803 1611.555590,1080.911621 1607.357694,1083.354190 1605.357517,1084.288707 1603.402135,1085.013070 1600.916281,1085.703720 1598.135419,1086.265752 1592.405372,1086.986146 1586.894592,1087.244598 1582.777129,1087.088755 1579.116906,1086.631685 1573.717841,1085.448029 1550.415053,1078.865270"/>
    <poly id="123806390#1" type="sport.baseball" color="79,230,125" fill="1" layer="-2.00" shape="1550.415053,1078.865270 1573.450543,1017.882315 1579.134726,1015.194115 1636.421009,1038.025227 1627.858876,1062.474675 1627.059840,1064.435272 1626.042016,1066.835602 1624.942678,1068.911924 1623.484319,1071.213817 1622.014097,1072.948750 1619.982532,1074.960430 1617.816132,1076.880296 1615.413203,1078.572803 1611.555590,1080.911621 1607.357694,1083.354190 1605.357517,1084.288707 1603.402135,1085.013070 1600.916281,1085.703720 1598.135419,1086.265752 1592.405372,1086.986146 1586.894592,1087.244598 1582.777129,1087.088755 1579.116906,1086.631685 1573.717841,1085.448029 1550.415053,1078.865270"/>
    <poly id="123806982" type="leisure.playground" color="207,245,201" fill="1" layer="-2.00" shape="1982.824041,1545.728370 1984.341293,1550.350527 1981.081874,1551.090899 1979.925710,1554.299342 1982.036766,1556.778693 1978.468629,1559.134694 1976.351784,1556.921903 1968.436258,1559.716860 1966.992723,1551.329384 1975.314349,1542.065026 1982.626527,1542.223841 1982.824041,1545.728370"/>
    <poly id="123808602" type="amenity.parking" color="184,184,179" fill="1" layer="-1.00" shape="2184.277288,1221.761957 2216.720824,1232.101618 2231.994297,1184.486105 2225.456064,1182.399290 2227.010410,1177.543876 2200.313524,1169.040394 2194.969366,1185.691986 2188.686861,1183.688553 2184.430035,1196.974677 2191.503872,1199.228667 2184.277288,1221.761957"/>
    <poly id="123809807" type="amenity.parking" color="184,184,179" fill="1" layer="-1.00" shape="475.347004,1514.423669 491.406452,1527.347369 532.763894,1537.859293 533.253334,1532.313937 544.008553,1532.911894 544.299053,1536.618357 563.087449,1526.299554 553.350781,1512.767156 540.940576,1520.267407 504.353680,1512.458142 487.900550,1500.626013 475.347004,1514.423669"/>
    <poly id="125705515" type="building.industrial" color="255,230,230" fill="1" layer="-1.00" shape="2671.492424,1889.801500 2674.326265,1881.640524 2712.083120,1774.123390 2686.048964,1764.887787 2692.313792,1747.023209 2693.032901,1747.261144 2694.577791,1742.850095 2685.870460,1739.882054 2685.612171,1740.654252 2658.617418,1731.175558 2657.333260,1734.703350 2656.775028,1734.468930 2654.976724,1739.430053 2653.938278,1739.074034 2654.028412,1738.631524 2653.470181,1738.397104 2651.411171,1744.241492 2651.971826,1744.364846 2652.137553,1744.146224 2653.256438,1744.503998 2650.254427,1752.994671 2674.375093,1761.410532 2636.711353,1868.374288 2669.775230,1879.985524 2666.941395,1888.146502 2671.492424,1889.801500"/>
    <poly id="128830416" type="amenity.parking" color="184,184,179" fill="1" layer="-1.00" shape="1877.856037,2638.124325 1893.908398,2585.535851 1898.538246,2586.880915 1900.245127,2579.795261 1928.338851,2587.828103 1931.992296,2577.073363 1943.730747,2580.117408 1944.430631,2576.421240 1967.099359,2562.668229 1982.713952,2573.230405 1935.824550,2600.691574 1885.577136,2640.147651 1877.856037,2638.124325"/>
    <poly id="128830651" type="amenity.school" color="237,199,199" fill="1" layer="-1.00" shape="1569.506137,2689.851760 1534.970360,2677.958417 1502.001114,2672.866302 1469.858782,2647.046427 1494.438877,2617.054377 1504.902249,2625.103703 1505.507899,2624.261206 1508.013335,2620.781893 1560.162275,2548.417599 1605.027126,2570.502205 1628.607242,2600.426334 1604.259788,2620.022256 1593.092293,2633.703425 1577.137614,2667.415579 1569.506137,2689.851760"/>