<routes>
        <vType id="typeWE" accel="0.8" decel="4.5" sigma="0.5" length="5"               minGap="2.5" maxSpeed="16.67" guiShape="passenger/wagon"/>
        <vType id="typeNS" accel="0.8" decel="4.5" sigma="0.5" length="7"               minGap="3" maxSpeed="25" guiShape="passenger/van"/>

        <route id="EastBound" edges="W-0W 0W-0 0-0E 0E-E" />
        <route id="WestBound" edges="E-0E 0E-0 0-0W 0W-W" />
        <route id="SouthBound" edges="N-0N 0N-0 0-0S 0S-S" />
        <route id="NorthBound" edges="S-0S 0S-0 0-0N 0N-N" />
    <vehicle id="WestBound_0" type="typeWE"                       route="WestBound" depart="0" />
    <vehicle id="WestBound_1" type="typeWE"                       route="WestBound" depart="2" />
    <vehicle id="EastBound_2" type="typeWE"                       route="EastBound" depart="3" />
    <vehicle id="NorthBound_3" type="typeNS"                       route="NorthBound" depart="4" color="1,0,0"/>
    <vehicle id="WestBound_4" type="typeWE"                       route="WestBound" depart="10" />
    <vehicle id="EastBound_5" type="typeWE"                       route="EastBound" depart="11" />
    <vehicle id="NorthBound_6" type="typeNS"                       route="NorthBound" depart="16" color="1,0,0"/>
    <vehicle id="EastBound_7" type="typeWE"                       route="EastBound" depart="22" />
    <vehicle id="WestBound_8" type="typeWE"                       route="WestBound" depart="22" />
    <vehicle id="SouthBound_9" type="typeNS"                       route="SouthBound" depart="23" color="1,0,0"/>
    <vehicle id="EastBound_10" type="typeWE"                       route="EastBound" depart="25" />
    <vehicle id="EastBound_11" type="typeWE"                       route="EastBound" depart="31" />
    <vehicle id="SouthBound_12" type="typeNS"                       route="SouthBound" depart="31" color="1,0,0"/>
    <vehicle id="EastBound_13" type="typeWE"                       route="EastBound" depart="34" />
    <vehicle id="EastBound_14" type="typeWE"                       route="EastBound" depart="40" />
    <vehicle id="WestBound_15" type="typeWE"                       route="WestBound" depart="41" />
    <vehicle id="EastBound_16" type="typeWE"                       route="EastBound" depart="44" />
    <vehicle id="WestBound_17" type="typeWE"                       route="WestBound" depart="49" />
    <vehicle id="EastBound_18" type="typeWE"                       route="EastBound" depart="56" />
    <vehicle id="EastBound_19" type="typeWE"                       route="EastBound" depart="63" />
    <vehicle id="EastBound_20" type="typeWE"                       route="EastBound" depart="64" />
    <vehicle id="WestBound_21" type="typeWE"                       route="WestBound" depart="67" />
    <vehicle id="SouthBound_22" type="typeNS"                       route="SouthBound" depart="72" color="1,0,0"/>
    <vehicle id="WestBound_23" type="typeWE"                       route="WestBound" depart="74" />
    <vehicle id="EastBound_24" type="typeWE"                       route="EastBound" depart="81" />
    <vehicle id="SouthBound_25" type="typeNS"                       route="SouthBound" depart="85" color="1,0,0"/>
    <vehicle id="EastBound_26" type="typeWE"                       route="EastBound" depart="92" />
    <vehicle id="SouthBound_27" type="typeNS"                       route="SouthBound" depart="98" color="1,0,0"/>
    <vehicle id="NorthBound_28" type="typeNS"                       route="NorthBound" depart="103" color="1,0,0"/>
    <vehicle id="NorthBound_29" type="typeNS"                       route="NorthBound" depart="106" color="1,0,0"/>
    <vehicle id="EastBound_30" type="typeWE"                       route="EastBound" depart="115" />
    <vehicle id="WestBound_31" type="typeWE"                       route="WestBound" depart="117" />
    <vehicle id="WestBound_32" type="typeWE"                       route="WestBound" depart="120" />
    <vehicle id="WestBound_33" type="typeWE"                       route="WestBound" depart="123" />
    <vehicle id="WestBound_34" type="typeWE"                       route="WestBound" depart="125" />
    <vehicle id="EastBound_35" type="typeWE"                       route="EastBound" depart="126" />
    <vehicle id="EastBound_36" type="typeWE"                       route="EastBound" depart="127" />
    <vehicle id="WestBound_37" type="typeWE"                       route="WestBound" depart="129" />
    <vehicle id="SouthBound_38" type="typeNS"                       route="SouthBound" depart="129" color="1,0,0"/>
    <vehicle id="EastBound_39" type="typeWE"                       route="EastBound" depart="132" />
    <vehicle id="NorthBound_40" type="typeNS"                       route="NorthBound" depart="135" color="1,0,0"/>
    <vehicle id="WestBound_41" type="typeWE"                       route="WestBound" depart="137" />
    <vehicle id="WestBound_42" type="typeWE"                       route="WestBound" depart="147" />
    <vehicle id="SouthBound_43" type="typeNS"                       route="SouthBound" depart="149" color="1,0,0"/>
    <vehicle id="EastBound_44" type="typeWE"                       route="EastBound" depart="150" />
    <vehicle id="EastBound_45" type="typeWE"                       route="EastBound" depart="152" />
    <vehicle id="WestBound_46" type="typeWE"                       route="WestBound" depart="159" />
    <vehicle id="EastBound_47" type="typeWE"                       route="EastBound" depart="164" />
    <vehicle id="SouthBound_48" type="typeNS"                       route="SouthBound" depart="164" color="1,0,0"/>
    <vehicle id="EastBound_49" type="typeWE"                       route="EastBound" depart="171" />
    <vehicle id="EastBound_50" type="typeWE"                       route="EastBound" depart="179" />
    <vehicle id="EastBound_51" type="typeWE"                       route="EastBound" depart="180" />
    <vehicle id="EastBound_52" type="typeWE"                       route="EastBound" depart="182" />
    <vehicle id="WestBound_53" type="typeWE"                       route="WestBound" depart="204" />
    <vehicle id="SouthBound_54" type="typeNS"                       route="SouthBound" depart="206" color="1,0,0"/>
    <vehicle id="NorthBound_55" type="typeNS"                       route="NorthBound" depart="212" color="1,0,0"/>
    <vehicle id="EastBound_56" type="typeWE"                       route="EastBound" depart="213" />
    <vehicle id="EastBound_57" type="typeWE"                       route="EastBound" depart="216" />
    <vehicle id="WestBound_58" type="typeWE"                       route="WestBound" depart="218" />
    <vehicle id="SouthBound_59" type="typeNS"                       route="SouthBound" depart="220" color="1,0,0"/>
    <vehicle id="EastBound_60" type="typeWE"                       route="EastBound" depart="227" />
    <vehicle id="WestBound_61" type="typeWE"                       route="WestBound" depart="232" />
    <vehicle id="EastBound_62" type="typeWE"                       route="EastBound" depart="239" />
    <vehicle id="SouthBound_63" type="typeNS"                       route="SouthBound" depart="241" color="1,0,0"/>
    <vehicle id="EastBound_64" type="typeWE"                       route="EastBound" depart="245" />
    <vehicle id="NorthBound_65" type="typeNS"                       route="NorthBound" depart="248" color="1,0,0"/>
    <vehicle id="EastBound_66" type="typeWE"                       route="EastBound" depart="250" />
    <vehicle id="WestBound_67" type="typeWE"                       route="WestBound" depart="253" />
    <vehicle id="SouthBound_68" type="typeNS"                       route="SouthBound" depart="256" color="1,0,0"/>
    <vehicle id="WestBound_69" type="typeWE"                       route="WestBound" depart="258" />
    <vehicle id="SouthBound_70" type="typeNS"                       route="SouthBound" depart="258" color="1,0,0"/>
    <vehicle id="WestBound_71" type="typeWE"                       route="WestBound" depart="262" />
    <vehicle id="WestBound_72" type="typeWE"                       route="WestBound" depart="265" />
    <vehicle id="EastBound_73" type="typeWE"                       route="EastBound" depart="266" />
    <vehicle id="WestBound_74" type="typeWE"                       route="WestBound" depart="281" />
    <vehicle id="WestBound_75" type="typeWE"                       route="WestBound" depart="283" />
    <vehicle id="NorthBound_76" type="typeNS"                       route="NorthBound" depart="284" color="1,0,0"/>
    <vehicle id="EastBound_77" type="typeWE"                       route="EastBound" depart="287" />
    <vehicle id="WestBound_78" type="typeWE"                       route="WestBound" depart="287" />
    <vehicle id="WestBound_79" type="typeWE"                       route="WestBound" depart="291" />
    <vehicle id="EastBound_80" type="typeWE"                       route="EastBound" depart="292" />
    <vehicle id="SouthBound_81" type="typeNS"                       route="SouthBound" depart="293" color="1,0,0"/>
    <vehicle id="EastBound_82" type="typeWE"                       route="EastBound" depart="296" />
    <vehicle id="WestBound_83" type="typeWE"                       route="WestBound" depart="296" />
    <vehicle id="WestBound_84" type="typeWE"                       route="WestBound" depart="298" />
    <vehicle id="EastBound_85" type="typeWE"                       route="EastBound" depart="309" />
    <vehicle id="EastBound_86" type="typeWE"                       route="EastBound" depart="310" />
    <vehicle id="EastBound_87" type="typeWE"                       route="EastBound" depart="311" />
    <vehicle id="WestBound_88" type="typeWE"                       route="WestBound" depart="315" />
    <vehicle id="EastBound_89" type="typeWE"                       route="EastBound" depart="320" />
    <vehicle id="EastBound_90" type="typeWE"                       route="EastBound" depart="329" />
    <vehicle id="SouthBound_91" type="typeNS"                       route="SouthBound" depart="330" color="1,0,0"/>
    <vehicle id="WestBound_92" type="typeWE"                       route="WestBound" depart="343" />
    <vehicle id="SouthBound_93" type="typeNS"                       route="SouthBound" depart="343" color="1,0,0"/>
    <vehicle id="NorthBound_94" type="typeNS"                       route="NorthBound" depart="344" color="1,0,0"/>
    <vehicle id="NorthBound_95" type="typeNS"                       route="NorthBound" depart="347" color="1,0,0"/>
    <vehicle id="EastBound_96" type="typeWE"                       route="EastBound" depart="348" />
    <vehicle id="WestBound_97" type="typeWE"                       route="WestBound" depart="350" />
    <vehicle id="EastBound_98" type="typeWE"                       route="EastBound" depart="352" />
    <vehicle id="WestBound_99" type="typeWE"                       route="WestBound" depart="354" />
    <vehicle id="WestBound_100" type="typeWE"                       route="WestBound" depart="357" />
    <vehicle id="WestBound_101" type="typeWE"                       route="WestBound" depart="359" />
    <vehicle id="SouthBound_102" type="typeNS"                       route="SouthBound" depart="361" color="1,0,0"/>
    <vehicle id="SouthBound_103" type="typeNS"                       route="SouthBound" depart="362" color="1,0,0"/>
    <vehicle id="EastBound_104" type="typeWE"                       route="EastBound" depart="363" />
    <vehicle id="WestBound_105" type="typeWE"                       route="WestBound" depart="369" />
    <vehicle id="WestBound_106" type="typeWE"                       route="WestBound" depart="372" />
    <vehicle id="EastBound_107" type="typeWE"                       route="EastBound" depart="374" />
    <vehicle id="WestBound_108" type="typeWE"                       route="WestBound" depart="376" />
    <vehicle id="EastBound_109" type="typeWE"                       route="EastBound" depart="389" />
    <vehicle id="WestBound_110" type="typeWE"                       route="WestBound" depart="392" />
    <vehicle id="SouthBound_111" type="typeNS"                       route="SouthBound" depart="395" color="1,0,0"/>
    <vehicle id="EastBound_112" type="typeWE"                       route="EastBound" depart="402" />
    <vehicle id="WestBound_113" type="typeWE"                       route="WestBound" depart="402" />
    <vehicle id="EastBound_114" type="typeWE"                       route="EastBound" depart="406" />
    <vehicle id="WestBound_115" type="typeWE"                       route="WestBound" depart="406" />
    <vehicle id="WestBound_116" type="typeWE"                       route="WestBound" depart="414" />
    <vehicle id="WestBound_117" type="typeWE"                       route="WestBound" depart="430" />
    <vehicle id="NorthBound_118" type="typeNS"                       route="NorthBound" depart="433" color="1,0,0"/>
    <vehicle id="SouthBound_119" type="typeNS"                       route="SouthBound" depart="434" color="1,0,0"/>
    <vehicle id="SouthBound_120" type="typeNS"                       route="SouthBound" depart="450" color="1,0,0"/>
    <vehicle id="NorthBound_121" type="typeNS"                       route="NorthBound" depart="451" color="1,0,0"/>
    <vehicle id="EastBound_122" type="typeWE"                       route="EastBound" depart="459" />
    <vehicle id="SouthBound_123" type="typeNS"                       route="SouthBound" depart="468" color="1,0,0"/>
    <vehicle id="WestBound_124" type="typeWE"                       route="WestBound" depart="469" />
    <vehicle id="EastBound_125" type="typeWE"                       route="EastBound" depart="477" />
    <vehicle id="EastBound_126" type="typeWE"                       route="EastBound" depart="481" />
    <vehicle id="EastBound_127" type="typeWE"                       route="EastBound" depart="483" />
    <vehicle id="SouthBound_128" type="typeNS"                       route="SouthBound" depart="483" color="1,0,0"/>
    <vehicle id="WestBound_129" type="typeWE"                       route="WestBound" depart="484" />
    <vehicle id="NorthBound_130" type="typeNS"                       route="NorthBound" depart="484" color="1,0,0"/>
    <vehicle id="WestBound_131" type="typeWE"                       route="WestBound" depart="490" />
    <vehicle id="SouthBound_132" type="typeNS"                       route="SouthBound" depart="490" color="1,0,0"/>
    <vehicle id="SouthBound_133" type="typeNS"                       route="SouthBound" depart="494" color="1,0,0"/>
    <vehicle id="WestBound_134" type="typeWE"                       route="WestBound" depart="495" />
    <vehicle id="EastBound_135" type="typeWE"                       route="EastBound" depart="496" />
    <vehicle id="SouthBound_136" type="typeNS"                       route="SouthBound" depart="497" color="1,0,0"/>
    <vehicle id="EastBound_137" type="typeWE"                       route="EastBound" depart="501" />
    <vehicle id="SouthBound_138" type="typeNS"                       route="SouthBound" depart="512" color="1,0,0"/>
    <vehicle id="EastBound_139" type="typeWE"                       route="EastBound" depart="517" />
    <vehicle id="SouthBound_140" type="typeNS"                       route="SouthBound" depart="525" color="1,0,0"/>
    <vehicle id="NorthBound_141" type="typeNS"                       route="NorthBound" depart="525" color="1,0,0"/>
    <vehicle id="EastBound_142" type="typeWE"                       route="EastBound" depart="528" />
    <vehicle id="EastBound_143" type="typeWE"                       route="EastBound" depart="530" />
    <vehicle id="SouthBound_144" type="typeNS"                       route="SouthBound" depart="530" color="1,0,0"/>
    <vehicle id="SouthBound_145" type="typeNS"                       route="SouthBound" depart="531" color="1,0,0"/>
    <vehicle id="EastBound_146" type="typeWE"                       route="EastBound" depart="533" />
    <vehicle id="EastBound_147" type="typeWE"                       route="EastBound" depart="538" />
    <vehicle id="WestBound_148" type="typeWE"                       route="WestBound" depart="538" />
    <vehicle id="EastBound_149" type="typeWE"                       route="EastBound" depart="540" />
    <vehicle id="SouthBound_150" type="typeNS"                       route="SouthBound" depart="540" color="1,0,0"/>
    <vehicle id="EastBound_151" type="typeWE"                       route="EastBound" depart="542" />
    <vehicle id="EastBound_152" type="typeWE"                       route="EastBound" depart="543" />
    <vehicle id="EastBound_153" type="typeWE"                       route="EastBound" depart="545" />
    <vehicle id="WestBound_154" type="typeWE"                       route="WestBound" depart="548" />
    <vehicle id="WestBound_155" type="typeWE"                       route="WestBound" depart="550" />
    <vehicle id="WestBound_156" type="typeWE"                       route="WestBound" depart="555" />
    <vehicle id="SouthBound_157" type="typeNS"                       route="SouthBound" depart="557" color="1,0,0"/>
    <vehicle id="EastBound_158" type="typeWE"                       route="EastBound" depart="558" />
    <vehicle id="EastBound_159" type="typeWE"                       route="EastBound" depart="562" />
    <vehicle id="EastBound_160" type="typeWE"                       route="EastBound" depart="563" />
    <vehicle id="WestBound_161" type="typeWE"                       route="WestBound" depart="576" />
    <vehicle id="SouthBound_162" type="typeNS"                       route="SouthBound" depart="582" color="1,0,0"/>
    <vehicle id="SouthBound_163" type="typeNS"                       route="SouthBound" depart="585" color="1,0,0"/>
    <vehicle id="NorthBound_164" type="typeNS"                       route="NorthBound" depart="593" color="1,0,0"/>
    <vehicle id="EastBound_165" type="typeWE"                       route="EastBound" depart="596" />
    <vehicle id="EastBound_166" type="typeWE"                       route="EastBound" depart="601" />
    <vehicle id="EastBound_167" type="typeWE"                       route="EastBound" depart="606" />
    <vehicle id="SouthBound_168" type="typeNS"                       route="SouthBound" depart="606" color="1,0,0"/>
    <vehicle id="EastBound_169" type="typeWE"                       route="EastBound" depart="609" />
    <vehicle id="WestBound_170" type="typeWE"                       route="WestBound" depart="609" />
    <vehicle id="WestBound_171" type="typeWE"                       route="WestBound" depart="613" />
    <vehicle id="SouthBound_172" type="typeNS"                       route="SouthBound" depart="619" color="1,0,0"/>
    <vehicle id="EastBound_173" type="typeWE"                       route="EastBound" depart="629" />
    <vehicle id="EastBound_174" type="typeWE"                       route="EastBound" depart="634" />
    <vehicle id="NorthBound_175" type="typeNS"                       route="NorthBound" depart="635" color="1,0,0"/>
    <vehicle id="NorthBound_176" type="typeNS"                       route="NorthBound" depart="640" color="1,0,0"/>
    <vehicle id="EastBound_177" type="typeWE"                       route="EastBound" depart="642" />
    <vehicle id="NorthBound_178" type="typeNS"                       route="NorthBound" depart="646" color="1,0,0"/>
    <vehicle id="EastBound_179" type="typeWE"                       route="EastBound" depart="649" />
    <vehicle id="WestBound_180" type="typeWE"                       route="WestBound" depart="651" />
    <vehicle id="SouthBound_181" type="typeNS"                       route="SouthBound" depart="654" color="1,0,0"/>
    <vehicle id="WestBound_182" type="typeWE"                       route="WestBound" depart="659" />
    <vehicle id="EastBound_183" type="typeWE"                       route="EastBound" depart="660" />
    <vehicle id="WestBound_184" type="typeWE"                       route="WestBound" depart="660" />
    <vehicle id="EastBound_185" type="typeWE"                       route="EastBound" depart="662" />
    <vehicle id="WestBound_186" type="typeWE"                       route="WestBound" depart="665" />
    <vehicle id="WestBound_187" type="typeWE"                       route="WestBound" depart="666" />
    <vehicle id="NorthBound_188" type="typeNS"                       route="NorthBound" depart="671" color="1,0,0"/>
    <vehicle id="SouthBound_189" type="typeNS"                       route="SouthBound" depart="672" color="1,0,0"/>
    <vehicle id="WestBound_190" type="typeWE"                       route="WestBound" depart="673" />
    <vehicle id="WestBound_191" type="typeWE"                       route="WestBound" depart="676" />
    <vehicle id="WestBound_192" type="typeWE"                       route="WestBound" depart="680" />
    <vehicle id="WestBound_193" type="typeWE"                       route="WestBound" depart="682" />
    <vehicle id="NorthBound_194" type="typeNS"                       route="NorthBound" depart="683" color="1,0,0"/>
    <vehicle id="EastBound_195" type="typeWE"                       route="EastBound" depart="687" />
    <vehicle id="NorthBound_196" type="typeNS"                       route="NorthBound" depart="688" color="1,0,0"/>
    <vehicle id="WestBound_197" type="typeWE"                       route="WestBound" depart="693" />
    <vehicle id="WestBound_198" type="typeWE"                       route="WestBound" depart="694" />
    <vehicle id="WestBound_199" type="typeWE"                       route="WestBound" depart="697" />
    <vehicle id="WestBound_200" type="typeWE"                       route="WestBound" depart="704" />
    <vehicle id="WestBound_201" type="typeWE"                       route="WestBound" depart="706" />
    <vehicle id="EastBound_202" type="typeWE"                       route="EastBound" depart="709" />
    <vehicle id="WestBound_203" type="typeWE"                       route="WestBound" depart="709" />
    <vehicle id="EastBound_204" type="typeWE"                       route="EastBound" depart="711" />
    <vehicle id="SouthBound_205" type="typeNS"                       route="SouthBound" depart="712" color="1,0,0"/>
    <vehicle id="WestBound_206" type="typeWE"                       route="WestBound" depart="714" />
    <vehicle id="WestBound_207" type="typeWE"                       route="WestBound" depart="721" />
    <vehicle id="EastBound_208" type="typeWE"                       route="EastBound" depart="724" />
    <vehicle id="WestBound_209" type="typeWE"                       route="WestBound" depart="727" />
    <vehicle id="EastBound_210" type="typeWE"                       route="EastBound" depart="730" />
    <vehicle id="EastBound_211" type="typeWE"                       route="EastBound" depart="731" />
    <vehicle id="EastBound_212" type="typeWE"                       route="EastBound" depart="733" />
    <vehicle id="NorthBound_213" type="typeNS"                       route="NorthBound" depart="741" color="1,0,0"/>
    <vehicle id="EastBound_214" type="typeWE"                       route="EastBound" depart="745" />
    <vehicle id="SouthBound_215" type="typeNS"                       route="SouthBound" depart="747" color="1,0,0"/>
    <vehicle id="EastBound_216" type="typeWE"                       route="EastBound" depart="751" />
    <vehicle id="WestBound_217" type="typeWE"                       route="WestBound" depart="752" />
    <vehicle id="NorthBound_218" type="typeNS"                       route="NorthBound" depart="754" color="1,0,0"/>
    <vehicle id="WestBound_219" type="typeWE"                       route="WestBound" depart="758" />
    <vehicle id="NorthBound_220" type="typeNS"                       route="NorthBound" depart="760" color="1,0,0"/>
    <vehicle id="EastBound_221" type="typeWE"                       route="EastBound" depart="763" />
    <vehicle id="SouthBound_222" type="typeNS"                       route="SouthBound" depart="765" color="1,0,0"/>
    <vehicle id="WestBound_223" type="typeWE"                       route="WestBound" depart="766" />
    <vehicle id="WestBound_224" type="typeWE"                       route="WestBound" depart="782" />
    <vehicle id="SouthBound_225" type="typeNS"                       route="SouthBound" depart="783" color="1,0,0"/>
    <vehicle id="WestBound_226" type="typeWE"                       route="WestBound" depart="785" />
    <vehicle id="SouthBound_227" type="typeNS"                       route="SouthBound" depart="792" color="1,0,0"/>
    <vehicle id="NorthBound_228" type="typeNS"                       route="NorthBound" depart="795" color="1,0,0"/>
    <vehicle id="EastBound_229" type="typeWE"                       route="EastBound" depart="801" />
    <vehicle id="NorthBound_230" type="typeNS"                       route="NorthBound" depart="801" color="1,0,0"/>
    <vehicle id="NorthBound_231" type="typeNS"                       route="NorthBound" depart="802" color="1,0,0"/>
    <vehicle id="SouthBound_232" type="typeNS"                       route="SouthBound" depart="808" color="1,0,0"/>
    <vehicle id="EastBound_233" type="typeWE"                       route="EastBound" depart="814" />
    <vehicle id="EastBound_234" type="typeWE"                       route="EastBound" depart="823" />
    <vehicle id="SouthBound_235" type="typeNS"                       route="SouthBound" depart="824" color="1,0,0"/>
    <vehicle id="WestBound_236" type="typeWE"                       route="WestBound" depart="828" />
    <vehicle id="EastBound_237" type="typeWE"                       route="EastBound" depart="830" />
    <vehicle id="SouthBound_238" type="typeNS"                       route="SouthBound" depart="831" color="1,0,0"/>
    <vehicle id="WestBound_239" type="typeWE"                       route="WestBound" depart="832" />
    <vehicle id="WestBound_240" type="typeWE"                       route="WestBound" depart="841" />
    <vehicle id="WestBound_241" type="typeWE"                       route="WestBound" depart="842" />
    <vehicle id="WestBound_242" type="typeWE"                       route="WestBound" depart="843" />
    <vehicle id="WestBound_243" type="typeWE"                       route="WestBound" depart="850" />
    <vehicle id="SouthBound_244" type="typeNS"                       route="SouthBound" depart="851" color="1,0,0"/>
    <vehicle id="EastBound_245" type="typeWE"                       route="EastBound" depart="853" />
    <vehicle id="NorthBound_246" type="typeNS"                       route="NorthBound" depart="855" color="1,0,0"/>
    <vehicle id="EastBound_247" type="typeWE"                       route="EastBound" depart="857" />
    <vehicle id="SouthBound_248" type="typeNS"                       route="SouthBound" depart="857" color="1,0,0"/>
    <vehicle id="WestBound_249" type="typeWE"                       route="WestBound" depart="865" />
    <vehicle id="WestBound_250" type="typeWE"                       route="WestBound" depart="867" />
    <vehicle id="WestBound_251" type="typeWE"                       route="WestBound" depart="874" />
    <vehicle id="WestBound_252" type="typeWE"                       route="WestBound" depart="875" />
    <vehicle id="WestBound_253" type="typeWE"                       route="WestBound" depart="879" />
    <vehicle id="EastBound_254" type="typeWE"                       route="EastBound" depart="886" />
    <vehicle id="WestBound_255" type="typeWE"                       route="WestBound" depart="892" />
    <vehicle id="EastBound_256" type="typeWE"                       route="EastBound" depart="906" />
    <vehicle id="EastBound_257" type="typeWE"                       route="EastBound" depart="909" />
    <vehicle id="NorthBound_258" type="typeNS"                       route="NorthBound" depart="913" color="1,0,0"/>
    <vehicle id="SouthBound_259" type="typeNS"                       route="SouthBound" depart="921" color="1,0,0"/>
    <vehicle id="WestBound_260" type="typeWE"                       route="WestBound" depart="924" />
    <vehicle id="EastBound_261" type="typeWE"                       route="EastBound" depart="928" />
    <vehicle id="NorthBound_262" type="typeNS"                       route="NorthBound" depart="934" color="1,0,0"/>
    <vehicle id="EastBound_263" type="typeWE"                       route="EastBound" depart="935" />
    <vehicle id="EastBound_264" type="typeWE"                       route="EastBound" depart="939" />
    <vehicle id="WestBound_265" type="typeWE"                       route="WestBound" depart="939" />
    <vehicle id="SouthBound_266" type="typeNS"                       route="SouthBound" depart="941" color="1,0,0"/>
    <vehicle id="WestBound_267" type="typeWE"                       route="WestBound" depart="950" />
    <vehicle id="WestBound_268" type="typeWE"                       route="WestBound" depart="956" />
    <vehicle id="EastBound_269" type="typeWE"                       route="EastBound" depart="961" />
    <vehicle id="WestBound_270" type="typeWE"                       route="WestBound" depart="966" />
    <vehicle id="NorthBound_271" type="typeNS"                       route="NorthBound" depart="966" color="1,0,0"/>
    <vehicle id="WestBound_272" type="typeWE"                       route="WestBound" depart="967" />
    <vehicle id="EastBound_273" type="typeWE"                       route="EastBound" depart="976" />
    <vehicle id="SouthBound_274" type="typeNS"                       route="SouthBound" depart="976" color="1,0,0"/>
    <vehicle id="EastBound_275" type="typeWE"                       route="EastBound" depart="978" />
    <vehicle id="WestBound_276" type="typeWE"                       route="WestBound" depart="988" />