<?xml version="1.0" encoding="UTF-8"?>
<edges xmlns:xsi="http://www.w3.org/2001/XMLSchema-instance" xsi:noNamespaceSchemaLocation="http://sumo.dlr.de/xsd/edges_file.xsd">
   <edge id="0W-0" from="0W" to="tl0" type="60KM.2lane" />
   <edge id="0-0W" from="tl0" to="0W" type="60KM.2lane" />

   <edge id="0E-0" from="0E" to="tl0" type="60KM.2lane" />
   <edge id="0-0E" from="tl0" to="0E" type="60KM.2lane" />

   <edge id="0S-0" from="0S" to="tl0" type="60KM.2lane" />
   <edge id="0-0S" from="tl0" to="0S" type="60KM.2lane" />

   <edge id="0N-0" from="0N" to="tl0" type="60KM.2lane" />
   <edge id="0-0N" from="tl0" to="0N" type="60KM.2lane" />

   <edge id="0W-W" from="0W" to="0WW" type="60KM.2lane" />
   <edge id="W-0W" from="0WW" to="0W" type="60KM.2lane" />

   <edge id="0E-E" from="0E" to="0EE" type="60KM.2lane" />
   <edge id="E-0E" from="0EE" to="0E" type="60KM.2lane" />

   <edge id="0S-S" from="0S" to="0SS" type="60KM.2lane" />
   <edge id="S-0S" from="0SS" to="0S" type="60KM.2lane" />

   <edge id="0N-N" from="0N" to="0NN" type="60KM.2lane" />
   <edge id="N-0N" from="0NN" to="0N" type="60KM.2lane" />
</edges>