<?xml version="1.0" encoding="iso-8859-1"?>
<connections xmlns:xsi="http://www.w3.org/2001/XMLSchema-instance" xsi:noNamespaceSchemaLocation="http://sumo.dlr.de/xsd/connections_file.xsd">
	<connection from="0W-0" to="0-0E"/>
	<connection from="0E-0" to="0-0W"/>
	<connection from="0N-0" to="0-0S"/>
	<connection from="0S-0" to="0-0N"/>
</connections>
